Material: main / MoSe2 / Beal
Optical constants. A.R. Beal and H. P. Huges Kramers-Kronig analysis of the reflectivity spectra of 2H-MoS2,2H-MoSe2, and 2H-MoTe2 Journal of Physics C Solid State Physics 12, 881 (2001)
wavelength (um)	n	k
4.386529765990419133e-02	6.835738833170801332e-01	1.856104898791904323e-01
5.514687921036569296e-02	5.662177221306519126e-01	3.513843665212514900e-01
6.642846076082720153e-02	5.704610339706144284e-01	7.109300557070218352e-01
7.771004231128869622e-02	6.754070044063684719e-01	9.288400999318708884e-01
8.899162386175019090e-02	7.896630062859689714e-01	1.083219510614728209e+00
1.002732054122116995e-01	9.104406557967031910e-01	1.284065819123088703e+00
1.115547869626732080e-01	1.189669927686031192e+00	1.439254200377832360e+00
1.228363685131347027e-01	1.448931903979445712e+00	1.310722300064173229e+00
1.341179500635961974e-01	1.486082460692947249e+00	1.094454943860924567e+00
1.453995316140576921e-01	1.348257511049626878e+00	9.137499252984944142e-01
1.566811131645192146e-01	9.456200631861941819e-01	1.098237572992203592e+00
1.679626947149807092e-01	9.233327492039264950e-01	1.488018650201758497e+00
1.792442762654422039e-01	1.062883541129140852e+00	1.742720127908791383e+00
1.905258578159036986e-01	1.190788458908257352e+00	1.900349982801157411e+00
2.018074393663652211e-01	1.311847938510377842e+00	2.037980954636666286e+00
2.130890209168267158e-01	1.452024706613888938e+00	2.179958859240076929e+00
2.243706024672882104e-01	1.603579636677534781e+00	2.305213454811211093e+00
2.356521840177497051e-01	1.758461601754062409e+00	2.340425587995772716e+00
2.469337655682111998e-01	1.899907816377684577e+00	2.374429983356221907e+00
2.582153471186727223e-01	2.010406324194686789e+00	2.430221048018198271e+00
2.694969286691342170e-01	2.110649319708758576e+00	2.492249846677265790e+00
2.807785102195957116e-01	2.236719328293376829e+00	2.536290766429196708e+00
2.920600917700572619e-01	2.430678251096950682e+00	2.608766541943153605e+00
3.033416733205187565e-01	2.572775639730694230e+00	2.636586863009896309e+00
3.146232548709802512e-01	2.765416473059234992e+00	2.504012978950735047e+00
3.259048364214417459e-01	2.814654140503732194e+00	2.431853922269451740e+00
3.371864179719032406e-01	2.824957973485292317e+00	2.381778177616781456e+00
3.484679995223647353e-01	2.787169819764396816e+00	2.365257927036376717e+00
3.597495810728262855e-01	2.755291522278883409e+00	2.444900324910924017e+00
3.710311626232877802e-01	2.818631598046891451e+00	2.614679202464007091e+00
3.823127441737492749e-01	2.916511172939487029e+00	2.752320167000613882e+00
3.935943257242107696e-01	3.071483303500742057e+00	2.903026255859676663e+00
4.048759072746722643e-01	3.258933269639411101e+00	2.973613834982598902e+00
4.161574888251337589e-01	3.473203841829040073e+00	3.076153399218600537e+00
4.274390703755952536e-01	3.811088640654158866e+00	2.950184985377089841e+00
4.387206519260567483e-01	3.992935323498709277e+00	2.897523051015127749e+00
4.500022334765182430e-01	4.126808862099228037e+00	2.806176460292487906e+00
4.612838150269797932e-01	4.230317925687259617e+00	2.707596572846793670e+00
4.725653965774412879e-01	4.335739099290107923e+00	2.612572964132395370e+00
4.838469781279027826e-01	4.442740821310297683e+00	2.521163316415901967e+00
4.951285596783642773e-01	4.533456211085957754e+00	2.420643680329181979e+00
5.064101412288257720e-01	4.619499713699484644e+00	2.323467415249039103e+00
5.176917227792872112e-01	4.704544843830906764e+00	2.223262923731936347e+00
5.289733043297487614e-01	4.782058737002008009e+00	2.107819346268454019e+00
5.402548858802103116e-01	4.848417428570948040e+00	2.000651111475228117e+00
5.515364674306717507e-01	4.908108558398859955e+00	1.872329993621554278e+00
5.628180489811333009e-01	4.918156037498019550e+00	1.699323913836694899e+00
5.740996305315947401e-01	4.939507908899505750e+00	1.568378766811496128e+00
5.853812120820562903e-01	4.926176069757425502e+00	1.464958547325865279e+00
5.966627936325178405e-01	4.898310136318244190e+00	1.403872621936320675e+00
6.079443751829792797e-01	4.869360188590083460e+00	1.342386472981387024e+00
6.192259567334408299e-01	4.832275917604360593e+00	1.282319782645290340e+00
6.305075382839022691e-01	4.802242102309698168e+00	1.247839482781063269e+00
6.417891198343638193e-01	4.772251235782785095e+00	1.214253912666566793e+00
6.530707013848252585e-01	4.741302886938444594e+00	1.180481885018896948e+00
6.643522829352868087e-01	4.718885773957975260e+00	1.181110101134138279e+00
6.756338644857483589e-01	4.709900110262240425e+00	1.234443550818582924e+00
6.869154460362097980e-01	4.809771932376306403e+00	1.258830577339784762e+00
6.981970275866713482e-01	4.940363831006211903e+00	1.236472014150083121e+00
7.094786091371327874e-01	5.009406937525580972e+00	1.075252592474243318e+00
7.207601906875943376e-01	4.977620776838045380e+00	9.804232046593228667e-01
7.320417722380557768e-01	4.947369676077837397e+00	8.851545426255877924e-01
7.433233537885173270e-01	4.888980819474157968e+00	8.568255114917234794e-01
7.546049353389787662e-01	4.826947349158063894e+00	8.284366806916700909e-01
7.658865168894403164e-01	4.785855209695144552e+00	8.589837684914931604e-01
7.771680984399018666e-01	4.766151330455425494e+00	9.429259678744580375e-01
7.884496799903633057e-01	4.786629552123077502e+00	1.048101887357460571e+00
7.997312615408248559e-01	4.993144803699841816e+00	1.157514775320451328e+00
8.110128430912862951e-01	5.246354956997075547e+00	1.012849340035474777e+00
8.222944246417478453e-01	5.408144088596559484e+00	6.857149735169894011e-01
8.335760061922092845e-01	5.466788787393745963e+00	4.405853977889881978e-01
8.448575877426708347e-01	5.390536857318630304e+00	3.315729103637972686e-01
8.561391692931322739e-01	5.317613340916267362e+00	2.697809598040216694e-01
8.674207508435938241e-01	5.109808421715254845e+00	2.117618285038111170e-01
8.787023323940553743e-01	5.007882535501948063e+00	1.468421360250896923e-01
8.899839139445168135e-01	4.904653977485547323e+00	7.924594967336806572e-02
9.012654954949783637e-01	4.823451869660368097e+00	8.703260069497240417e-03
9.125470770454398028e-01	4.746063792513084856e+00	0.000000000000000000e+00
9.238286585959013530e-01	4.670481160154102085e+00	0.000000000000000000e+00
9.351102401463627922e-01	4.640821800244040674e+00	0.000000000000000000e+00
9.463918216968243424e-01	4.610971671303098596e+00	0.000000000000000000e+00
9.576734032472858926e-01	4.580927044327326669e+00	0.000000000000000000e+00
9.689549847977473318e-01	4.550684067224202600e+00	0.000000000000000000e+00
9.802365663482088820e-01	4.520238759048460508e+00	0.000000000000000000e+00
9.915181478986703212e-01	4.489587003886154726e+00	0.000000000000000000e+00
1.002799729449131760e+00	4.460526716941143555e+00	0.000000000000000000e+00
1.014081310999593200e+00	4.446371431189104939e+00	0.000000000000000000e+00
1.025362892550054861e+00	4.432170946333134687e+00	0.000000000000000000e+00
1.036644474100516300e+00	4.417924826703948149e+00	0.000000000000000000e+00
1.047926055650977739e+00	4.403632629589492531e+00	0.000000000000000000e+00
1.059207637201439178e+00	4.389293905074547197e+00	0.000000000000000000e+00
1.070489218751900840e+00	4.374908195875607753e+00	5.503655932579679181e-05
1.081770800302362279e+00	4.360475037170870038e+00	2.679631127901847668e-04
1.093052381852823718e+00	4.345993956425134641e+00	4.823092381070341367e-04
1.104333963403285157e+00	4.331840244438637910e+00	6.980358076593872396e-04
1.115615544953746818e+00	4.317658204446801484e+00	9.151827185731200133e-04
1.126897126504208257e+00	4.303429438842012011e+00	1.133773148251045150e-03
1.138178708054669697e+00	4.289153482831545183e+00	1.353828753420054706e-03
1.149460289605131358e+00	4.274829863867420698e+00	1.575371674917019947e-03
1.160741871155592797e+00	4.260458101464074332e+00	1.798424551981878247e-03
