Material: schott / obsolete / LASFN9
Optical constants. SCHOTT Zemax catalog 2015-07-22
Comments: was replaced by N-LASF9
Dispersion formula 2, range 0.365 2.5 um, coefficients 0 1.97888194 0.0118537266 0.320435298 0.052738177 1.92900751 166.25654
wavelength (um)	k
0.365	1.1086E-05
0.370	7.6662E-06
0.380	4.1322E-06
0.390	2.6193E-06
0.400	1.8286E-06
0.405	1.5668E-06
0.420	1.0564E-06
0.436	7.6555E-07
0.460	5.2665E-07
0.500	2.8447E-07
0.546	1.3234E-07
0.580	9.7958E-08
0.620	8.9617E-08
0.660	7.9379E-08
0.700	6.7249E-08
1.060	2.5344E-08
1.530	4.8799E-08
1.970	4.7750E-07
2.325	2.5766E-06
2.500	5.7233E-06
