Material: main / MoS2 / Beal
Optical constants. A.R. Beal and H. P. Huges Kramers-Kronig analysis of the reflectivity spectra of 2H-MoS2,2H-MoSe2, and 2H-MoTe2 Journal of Physics C Solid State Physics 12, 881 (2001)
wavelength (um)	n	k
8.109681512830407835e-02	7.400745488548760020e-01	1.163787926498100589e+00
9.275994579021860920e-02	8.365398696258383726e-01	1.363762813017642461e+00
1.044230764521331400e-01	1.148984605602572096e+00	1.653049789994122554e+00
1.160862071140476570e-01	1.507413581965341587e+00	1.555476780519415625e+00
1.277493377759622017e-01	1.700770836697280464e+00	1.250332319483560495e+00
1.394124684378767187e-01	1.206974572870930684e+00	1.054963840543298392e+00
1.510755990997912357e-01	9.898930879017731055e-01	1.519901029776642654e+00
1.627387297617057804e-01	1.141748934630930190e+00	1.750565709167736905e+00
1.744018604236203251e-01	1.268004785733020334e+00	1.961399791931572656e+00
1.860649910855348421e-01	1.361815250884583994e+00	2.180953150872708690e+00
1.977281217474493591e-01	1.578815845328333856e+00	2.401177626133732979e+00
2.093912524093639038e-01	1.904303570738167473e+00	2.508103898813709876e+00
2.210543830712784208e-01	2.053388965231071950e+00	2.503757884229836250e+00
2.327175137331929655e-01	2.152884176792988491e+00	2.557585991497520084e+00
2.443806443951074825e-01	2.242872511499172550e+00	2.617707418756760607e+00
2.560437750570220272e-01	2.459281049986808743e+00	2.740565728116821198e+00
2.677069057189365164e-01	2.726423524029997214e+00	2.696272691686208312e+00
2.793700363808510612e-01	2.964524343974773934e+00	2.584411016895549196e+00
2.910331670427656059e-01	3.067941298221547708e+00	2.399083624579045004e+00
3.026962977046800951e-01	3.044041664747558329e+00	2.296901245486238086e+00
3.143594283665946953e-01	2.996599153926609915e+00	2.251391823789698599e+00
3.260225590285091846e-01	2.979502535943558517e+00	2.246371963127169025e+00
3.376856896904237293e-01	2.943828805092962408e+00	2.255437909910882777e+00
3.493488203523382740e-01	2.872127708423059200e+00	2.363690441576003831e+00
3.610119510142527632e-01	2.886865843569978107e+00	2.586254678591819012e+00
3.726750816761673080e-01	2.956673124625958771e+00	2.848409865751995174e+00
3.843382123380818527e-01	3.128416856862010764e+00	3.076796567609672906e+00
3.960013429999963419e-01	3.567852142399436488e+00	3.125679090299803509e+00
4.076644736619108866e-01	3.915434153262299155e+00	3.165724375901596943e+00
4.193276043238254314e-01	4.120056734519017994e+00	3.155836213702531534e+00
4.309907349857399761e-01	4.310709140526824967e+00	3.140047213450530172e+00
4.426538656476544653e-01	4.590293866365667164e+00	3.145324760812522769e+00
4.543169963095690100e-01	4.935816900311082556e+00	3.107915062428219688e+00
4.659801269714835548e-01	5.445613354165870668e+00	2.847145985411096980e+00
4.776432576333980440e-01	5.522980483071235902e+00	2.386573840670773272e+00
4.893063882953125887e-01	5.646769024779485058e+00	1.922524501731242896e+00
5.009695189572271889e-01	5.620983982822601810e+00	1.557514841186894872e+00
5.126326496191416782e-01	5.486072763130186658e+00	1.275154337465127075e+00
5.242957802810561674e-01	5.309798772391191690e+00	1.181066273474059791e+00
5.359589109429707676e-01	5.200204931735738612e+00	1.148757179997835109e+00
5.476220416048852568e-01	5.088203166939170963e+00	1.115584631812682970e+00
5.592851722667997461e-01	4.973496907223717400e+00	1.081506606056564790e+00
5.709483029287143463e-01	4.858335874580999025e+00	1.045917448963728624e+00
5.826114335906287245e-01	4.797335744713474348e+00	1.121079983447028638e+00
5.942745642525433247e-01	4.743133287008962640e+00	1.221301642546343436e+00
6.059376949144579250e-01	4.886776501062730205e+00	1.472209616879924132e+00
6.176008255763725252e-01	5.164243749749673817e+00	1.326108767417251588e+00
6.292639562382869034e-01	5.253977753986873722e+00	1.129912676491327206e+00
6.409270869002015036e-01	5.155728953248049251e+00	9.745902595748522357e-01
6.525902175621161039e-01	5.068120132751410267e+00	1.076296606308537296e+00
6.642533482240304821e-01	5.073995970001572431e+00	1.257452035529997847e+00
6.759164788859450823e-01	5.618411008185229427e+00	1.300334313671807296e+00
6.875796095478596826e-01	5.878027154254978903e+00	7.119479777212243121e-01
6.992427402097740607e-01	5.712173270571448747e+00	4.301550928478283242e-01
7.109058708716886610e-01	5.430698415200780893e+00	3.138824282894464579e-01
7.225690015336032612e-01	5.245651455114618500e+00	1.814991324381447502e-01
7.342321321955176394e-01	5.109115577771952132e+00	3.905990527005487323e-02
7.458952628574322397e-01	5.030582773026178955e+00	0.000000000000000000e+00
7.575583935193468399e-01	4.967654014888453595e+00	0.000000000000000000e+00
7.692215241812612181e-01	4.903917801177114733e+00	0.000000000000000000e+00
7.808846548431758183e-01	4.838643061723508332e+00	0.000000000000000000e+00
7.925477855050904186e-01	4.770709987828808174e+00	0.000000000000000000e+00
8.042109161670047968e-01	4.701795498936371942e+00	0.000000000000000000e+00
8.158740468289193970e-01	4.651173269760023210e+00	0.000000000000000000e+00
8.275371774908339972e-01	4.621787475799002287e+00	0.000000000000000000e+00
8.392003081527483754e-01	4.592213648374611878e+00	0.000000000000000000e+00
8.508634388146629757e-01	4.562448131134337892e+00	0.000000000000000000e+00
8.625265694765775759e-01	4.532487147671661276e+00	0.000000000000000000e+00
8.741897001384919541e-01	4.502326795933952575e+00	0.000000000000000000e+00
8.858528308004065543e-01	4.474014278697634239e+00	0.000000000000000000e+00
8.975159614623211546e-01	4.460553848507653463e+00	0.000000000000000000e+00
9.091790921242357548e-01	4.447052681462634105e+00	0.000000000000000000e+00
9.208422227861501330e-01	4.433510405497254503e+00	0.000000000000000000e+00
9.325053534480647333e-01	4.419926642848531095e+00	0.000000000000000000e+00
9.441684841099793335e-01	4.406301009932930945e+00	0.000000000000000000e+00
9.558316147718937117e-01	4.392633117220055006e+00	1.265842678757681233e-04
9.674947454338083119e-01	4.378922569102768669e+00	2.869013085086213693e-04
9.791578760957229122e-01	4.365168963763677468e+00	4.482298391927286210e-04
9.908210067576372904e-01	4.351371893037790706e+00	6.105842974881667577e-04
1.002484137419551891e+00	4.337530942271270007e+00	7.739794281226918633e-04
1.014147268081466491e+00	4.323645690176102008e+00	9.384302916231101804e-04
1.025810398743380869e+00	4.309715708680565527e+00	1.103952273247950800e-03
1.037473529405295469e+00	4.303485459021694659e+00	1.268274488984664616e-03
1.049136660067210070e+00	4.298995112981637057e+00	1.432493182078977724e-03
1.060799790729124448e+00	4.294500078228750795e+00	1.597057033867647653e-03
1.072462921391039048e+00	4.290000340065016182e+00	1.761967674927782850e-03
1.084126052052953426e+00	4.285495883715570997e+00	1.927226747259492765e-03
1.095789182714868026e+00	4.280986694328141162e+00	2.092835904391092752e-03
1.107452313376782627e+00	4.276472756972478528e+00	2.258796811485451732e-03
1.119115444038697005e+00	4.271954056639785335e+00	2.425111145447589062e-03
1.130778574700611605e+00	4.267430578242134231e+00	2.591780595033499595e-03
1.142441705362526205e+00	4.262902306611885628e+00	2.758806860960195863e-03
1.154104836024440806e+00	4.258369226501096172e+00	2.926191656017047404e-03
1.165767966686355184e+00	4.253831322580923668e+00	3.093936705178383824e-03
1.177431097348269784e+00	4.249288579441024893e+00	3.262043745717404554e-03
1.189094228010184384e+00	4.244740981588951634e+00	3.430514527321390072e-03
1.200757358672098762e+00	4.240188513449536067e+00	3.599350812208256239e-03
1.212420489334013363e+00	4.235631159364267262e+00	3.768554375244482536e-03
1.224083619995927963e+00	4.231068903590675667e+00	3.938127004064363029e-03
1.235746750657842341e+00	4.226501730301695403e+00	4.108070499190686307e-03
