Material: main / MoS2 / MoS2-APL-A
Optical constants. Chanyoung Yim, Maria O'Brien, Niall McEvoy, Sin√©ad Winters, Inam Mirza, James G. Lunney and Georg S. Duesberg Investigation of the optical properties of MoS2 thin films using spectroscopic ellipsometry App. Phys. Let. 104, 103114 (2014)
Comments: thickness A
wavelength (um)	n
1.39740,2.88974,
1.80614,3.60544,
1.90956,3.74118,
1.98010,3.63166,
2.04547,3.24945,
2.11832,2.69446,
2.17871,2.45774,
2.24930,2.45731,
2.40072,2.79275,
2.58494,3.20072,
2.66315,3.31843,
2.78662,3.19950,
2.92515,2.93503,
2.96040,2.83481,
3.04343,2.48886,
3.14905,1.91549,
3.23966,1.59676,
3.23965,1.58767,
wavelength (um)	k
1.38567,0.0910849,
1.65805,0.243034,
1.80949,0.499558,
1.89036,0.793104,
1.96124,1.21526,
1.99418,1.44778,
2.03712,1.57005,
2.06739,1.60666,
2.12275,1.44725,
2.18555,1.12863,
2.27857,0.754785,
2.40448,0.546108,
2.48768,0.564136,
2.59368,0.735131,
2.70235,1.11428,
2.76807,1.36503,
2.86651,1.54830,
2.95236,1.73774,
3.04578,1.93940,
3.11131,1.91465,
3.16917,1.74910,
3.24211,1.49167,
3.24211,1.49167,
