Material: main / MoS2 / MoS2-APL-E
Optical constants. Chanyoung Yim, Maria O'Brien, Niall McEvoy, Sin√©ad Winters, Inam Mirza, James G. Lunney and Georg S. Duesberg Investigation of the optical properties of MoS2 thin films using spectroscopic ellipsometry App. Phys. Let. 104, 103114 (2014)
Comments: thickness E
wavelength (um)	n
1.40052,4.17153,
1.68804,4.43343,
1.77378,4.50563,
1.86705,4.46871,
1.96776,4.19537,
2.06853,4.04021,
2.18957,4.12130,
2.39146,4.57462,
2.51008,4.85572,
2.60087,4.91880,
2.68393,4.64557,
2.78453,4.12678,
2.94554,3.40763,
3.05882,3.05240,
3.24759,2.39671,
wavelength (um)	k
1.39347,0.428648,
1.61797,0.605646,
1.76441,0.930205,
1.88059,1.24875,
1.95375,1.32207,
2.02683,1.27883,
2.12506,1.13732,
2.25612,1.09384,
2.36460,1.20383,
2.46820,1.55310,
2.58205,2.13547,
2.68079,2.74243,
2.75158,3.03662,
2.82728,3.13448,
2.99619,3.13992,
3.12976,3.08416,
3.23551,2.88740,
3.23551,2.88740,
