Material: main / MoTe2 / MoTe2-Beal
Optical constants. A.R. Beal and H. P. Huges Kramers-Kronig analysis of the reflectivity spectra of 2H-MoS2,2H-MoSe2, and 2H-MoTe2 Journal of Physics C Solid State Physics 12, 881 (2001)
wavelength (um)	n	k
6.911006438306531441e-02	5.383679673759637074e-01	5.142714927900696731e-01
8.069700860003709009e-02	5.769771574022271032e-01	8.162329826371934605e-01
9.228395281700886577e-02	6.574474198559722149e-01	1.044874461514430974e+00
1.038708970339806414e-01	7.485405100696180813e-01	1.228969863778769378e+00
1.154578412509524310e-01	8.149426545001200450e-01	1.414722167533896791e+00
1.270447854679241928e-01	1.041518105591126453e+00	1.591013885590281562e+00
1.386317296848959824e-01	1.422507477119624220e+00	1.689326114421555891e+00
1.502186739018677719e-01	1.670200702863023245e+00	1.422909677899053760e+00
1.618056181188395337e-01	1.503785075595867271e+00	1.114831328284836776e+00
1.733925623358112955e-01	1.311868628555349803e+00	1.152723440059205018e+00
1.849795065527830851e-01	1.132215150827884820e+00	1.375428606063747505e+00
1.965664507697548746e-01	1.088143883714179250e+00	1.672145474000049203e+00
2.081533949867266364e-01	1.201825338576003599e+00	2.014576429659002965e+00
2.197403392036983982e-01	1.382270415471250180e+00	2.210644731123888818e+00
2.313272834206702155e-01	1.583189507160320808e+00	2.330895073235248027e+00
2.429142276376419773e-01	1.792758872958216676e+00	2.341042458090885958e+00
2.545011718546137391e-01	2.001873070013210132e+00	2.329076765149993733e+00
2.660881160715855565e-01	2.132405279397411313e+00	2.261606163907198930e+00
2.776750602885573183e-01	2.245077151312513841e+00	2.181441944189723703e+00
2.892620045055290801e-01	2.276350446863018018e+00	2.213132931247834723e+00
3.008489487225008419e-01	2.315398724246818141e+00	2.253463382587694408e+00
3.124358929394726592e-01	2.453122333288732193e+00	2.361234608086336895e+00
3.240228371564444210e-01	2.593360455332208492e+00	2.408966801057629059e+00
3.356097813734161828e-01	2.705361599870797829e+00	2.432399409707355797e+00
3.471967255903880001e-01	2.814020197401794654e+00	2.456883814641364072e+00
3.587836698073597619e-01	3.014709279689233412e+00	2.349893660108529847e+00
3.703706140243315237e-01	3.096505193386562826e+00	2.251378841714719581e+00
3.819575582413033410e-01	3.113555423284857682e+00	2.202808492373812044e+00
3.935445024582751028e-01	3.147213642121790222e+00	2.199535364228039303e+00
4.051314466752468646e-01	3.181798201822194194e+00	2.198114222595324296e+00
4.167183908922186264e-01	3.240768487743291182e+00	2.232780992110839247e+00
4.283053351091904437e-01	3.299985811237558853e+00	2.268810514581454552e+00
4.398922793261622055e-01	3.485169611142571622e+00	2.188531486425424610e+00
4.514792235431339673e-01	3.566794070666010619e+00	2.161191760209403956e+00
4.630661677601057846e-01	3.641215868929931876e+00	2.139691134808887174e+00
4.746531119770775464e-01	3.715592636031914253e+00	2.120506791203685903e+00
4.862400561940493082e-01	3.791802114848924710e+00	2.101059411890423778e+00
4.978270004110210700e-01	3.925903481326020295e+00	2.051671331992617642e+00
5.094139446279928318e-01	4.023826691955231460e+00	1.967609569414468851e+00
5.210008888449646491e-01	4.056309532672197626e+00	1.867757138976058773e+00
5.325878330619363554e-01	4.050982812430675928e+00	1.673288674002824328e+00
5.441747772789081727e-01	4.039980186841965804e+00	1.599237972931856877e+00
5.557617214958799901e-01	3.981581233673212150e+00	1.542933681423885206e+00
5.673486657128516963e-01	3.935866230157152312e+00	1.519944488317599207e+00
5.789356099298235137e-01	3.914089565905163770e+00	1.519577857689144551e+00
5.905225541467953310e-01	3.893373879260118020e+00	1.518793127713745417e+00
6.021094983637670373e-01	3.876747212416089106e+00	1.528690294171942243e+00
6.136964425807388546e-01	3.876350159524939443e+00	1.550913726180894514e+00
6.252833867977106719e-01	3.900240628607039017e+00	1.563345466041291321e+00
6.368703310146823782e-01	3.923987415651131627e+00	1.575683528406268685e+00
6.484572752316541955e-01	3.947593048235364943e+00	1.587929934325223336e+00
6.600442194486260128e-01	3.975724846481085706e+00	1.600038524147354257e+00
6.716311636655977191e-01	4.035727321406994861e+00	1.610978826765179672e+00
6.832181078825695364e-01	4.094885377842913066e+00	1.621932973002514711e+00
6.948050520995413537e-01	4.153232436956705520e+00	1.632893912762445554e+00
7.063919963165130600e-01	4.210799848969772441e+00	1.643855457982061452e+00
7.179789405334848773e-01	4.275582801674225664e+00	1.637939147516036087e+00
7.295658847504566946e-01	4.360331433068197704e+00	1.616833934896577230e+00
7.411528289674284009e-01	4.443993537525420479e+00	1.596923836078523840e+00
7.527397731844002182e-01	4.517378012982608659e+00	1.553168311065453944e+00
7.643267174013719245e-01	4.558367293105787255e+00	1.426019055068171282e+00
7.759136616183437418e-01	4.612775229847528635e+00	1.364727226778992053e+00
7.875006058353155591e-01	4.614838485705852200e+00	1.319665096246468217e+00
7.990875500522872654e-01	4.617319871572264312e+00	1.274527813818820299e+00
8.106744942692590827e-01	4.620223890443727832e+00	1.229326557221879890e+00
8.222614384862309000e-01	4.623554563768611736e+00	1.184072812495897242e+00
8.338483827032026063e-01	4.609486687666457527e+00	1.143182948627557982e+00
8.454353269201744236e-01	4.589925298858759994e+00	1.103361728292504118e+00
8.570222711371462410e-01	4.581540721693360574e+00	1.109505008095909684e+00
8.686092153541179472e-01	4.583272977357825795e+00	1.156447269672206568e+00
8.801961595710897646e-01	4.667616609433597574e+00	1.056377688781694246e+00
8.917831037880614709e-01	4.775752602039631256e+00	9.488433555468115399e-01
9.033700480050332882e-01	4.782743111281045678e+00	8.653447868686279243e-01
9.149569922220051055e-01	4.793103789493385669e+00	7.935571829979570779e-01
9.265439364389768118e-01	4.782372419358010163e+00	7.252638982476252716e-01
9.381308806559486291e-01	4.767027255087924686e+00	6.600846890497951147e-01
9.497178248729204464e-01	4.754618040290795378e+00	6.113892674288817775e-01
9.613047690898921527e-01	4.742640065604926569e+00	5.623878558889240376e-01
9.728917133068639700e-01	4.731107152653819981e+00	5.130900308562522660e-01
9.844786575238357873e-01	4.699477103857696569e+00	4.655336335896647082e-01
9.960656017408074936e-01	4.658875396717017559e+00	4.499922079104626271e-01
1.007652545957779200e+00	4.617959776441920461e+00	4.343524290308666824e-01
1.019239490174751017e+00	4.576709057403752112e+00	4.184636694093865628e-01
1.030826434391722835e+00	4.535115855441476995e+00	4.023162679972367428e-01
1.042413378608694652e+00	4.494233071823851233e+00	3.980577493509145914e-01
1.054000322825666247e+00	4.477160346899237808e+00	3.995496946246083758e-01
1.065587267042638064e+00	4.465751004716763006e+00	4.005444538354399064e-01
1.077174211259609882e+00	4.454313350190952647e+00	4.015468612761634581e-01
1.088761155476581699e+00	4.442847178606132097e+00	4.025570137281083150e-01
1.100348099693553516e+00	4.412257580127024070e+00	4.193875376077199069e-01
1.111935043910525334e+00	4.381120488814689296e+00	4.469359566979544396e-01
1.123521988127497151e+00	4.359257505496611174e+00	4.738684763929788546e-01
1.135108932344468746e+00	4.393452261698295835e+00	4.946791311557706683e-01
1.146695876561440564e+00	4.427446049005204110e+00	5.151917285046788697e-01
1.158282820778412381e+00	4.461240477296105844e+00	5.354156607923640232e-01
1.169869764995384198e+00	4.491507261467400092e+00	5.277311310313320680e-01
1.181456709212356015e+00	4.516593743855983334e+00	4.747010081861308128e-01
1.193043653429327833e+00	4.542210669187947580e+00	4.222074095837644592e-01
1.204630597646299428e+00	4.568331543480661949e+00	3.702617423819470344e-01
1.216217541863271245e+00	4.594929854579626216e+00	3.188735933048492122e-01
